Version 4
SHEET 1 880 680
WIRE -64 -128 -112 -128
WIRE 432 -128 16 -128
WIRE -112 96 -112 -128
WIRE -32 96 -112 96
WIRE 96 96 48 96
WIRE 432 96 432 -128
WIRE 432 96 368 96
WIRE -112 128 -112 96
WIRE 96 128 -112 128
WIRE 432 128 368 128
WIRE 576 128 512 128
WIRE 576 208 576 128
FLAG 576 208 0
SYMBOL AutoGenerated\\LTK0507 224 112 R0
SYMATTR InstName U1
SYMBOL voltage -80 -128 R270
WINDOW 0 32 56 VTop 2
WINDOW 3 -32 56 VBottom 2
WINDOW 123 0 0 Left 0
WINDOW 39 0 0 Left 0
SYMATTR InstName V1
SYMATTR Value 10
SYMBOL res 64 80 R90
WINDOW 0 0 56 VBottom 2
WINDOW 3 32 56 VTop 2
SYMATTR InstName R1
SYMATTR Value 1
SYMBOL voltage 416 128 R270
WINDOW 0 32 56 VTop 2
WINDOW 3 -32 56 VBottom 2
WINDOW 123 0 0 Left 0
WINDOW 39 0 0 Left 0
SYMATTR InstName V2
SYMATTR Value 0
TEXT -118 232 Left 2 !.tran 10
